Version 4
SHEET 1 1104 680
WIRE 624 -480 624 -560
WIRE 640 -480 624 -480
WIRE 640 -432 640 -480
WIRE 640 -432 624 -432
WIRE 576 -400 432 -400
WIRE 624 -336 624 -384
WIRE 848 -336 816 -336
WIRE 240 -320 192 -320
WIRE 848 -304 720 -304
WIRE 1024 -304 976 -304
WIRE 240 -288 192 -288
WIRE 544 -288 368 -288
WIRE 640 -288 640 -432
WIRE 640 -288 624 -288
WIRE 848 -272 816 -272
WIRE 240 -256 192 -256
WIRE 544 -256 544 -288
WIRE 576 -256 544 -256
WIRE 624 -208 624 -240
WIRE 720 -208 720 -304
WIRE 720 -208 624 -208
WIRE 432 -192 432 -400
WIRE 432 -192 384 -192
WIRE 624 -160 624 -208
WIRE 736 -112 624 -112
WIRE 576 -80 544 -80
WIRE 624 -32 624 -64
WIRE 736 16 736 -112
WIRE 736 16 624 16
WIRE 432 48 432 -192
WIRE 576 48 432 48
WIRE 624 80 624 64
WIRE 736 80 736 16
WIRE 736 80 624 80
WIRE 624 128 624 80
FLAG 1024 -304 Y
IOPIN 1024 -304 Out
FLAG 624 -560 VDD
IOPIN 624 -560 In
FLAG 624 128 GND
IOPIN 624 128 In
FLAG 384 -192 D
IOPIN 384 -192 In
FLAG 544 -80 CLK
IOPIN 544 -80 In
FLAG 816 -272 VDD
IOPIN 816 -272 In
FLAG 816 -336 GND
IOPIN 816 -336 In
FLAG 192 -320 GND
IOPIN 192 -320 In
FLAG 192 -256 VDD
IOPIN 192 -256 In
FLAG 192 -288 CLK
IOPIN 192 -288 In
SYMBOL cmosp\ (3) 576 -480 R0
SYMATTR InstName M1
SYMATTR Value2 l=180n w=2400n
SYMBOL cmosp\ (3) 576 -336 R0
SYMATTR InstName M2
SYMATTR Value2 l=180n w=2400n
SYMBOL cmosn\ (2) 576 -160 R0
SYMATTR InstName M3
SYMATTR Value2 l=180n w=800n
SYMBOL cmosn\ (2) 576 -32 R0
SYMATTR InstName M4
SYMATTR Value2 l=180n w=800n
SYMBOL imv3 912 -304 R0
SYMATTR InstName X1
SYMBOL imv3 304 -288 R0
SYMATTR InstName X2
