Version 4
SHEET 1 880 680
WIRE 272 -64 240 -64
WIRE 272 -16 272 -64
WIRE 272 -16 208 -16
WIRE 288 -16 272 -16
WIRE 208 48 208 -16
WIRE 288 96 288 -16
WIRE 288 96 208 96
WIRE 160 128 48 128
WIRE -176 160 -208 160
WIRE 208 176 208 144
WIRE -176 192 -208 192
WIRE 0 192 -48 192
WIRE -176 224 -208 224
WIRE 288 224 288 96
WIRE 288 224 208 224
WIRE 160 256 128 256
WIRE 464 256 432 256
WIRE 208 288 208 272
WIRE 464 288 208 288
WIRE 640 288 592 288
WIRE 208 320 208 288
WIRE 464 320 432 320
WIRE 48 336 48 128
WIRE 48 336 -32 336
WIRE 288 368 208 368
WIRE 0 400 0 192
WIRE 160 400 0 400
WIRE 208 464 208 416
WIRE 288 512 288 368
WIRE 288 512 208 512
WIRE 48 544 48 336
WIRE 160 544 48 544
WIRE 208 576 208 560
WIRE 272 576 208 576
WIRE 288 576 288 512
WIRE 288 576 272 576
WIRE 272 608 272 576
WIRE 272 608 240 608
FLAG -208 160 GND
IOPIN -208 160 In
FLAG 432 256 GND
IOPIN 432 256 In
FLAG 240 608 GND
IOPIN 240 608 In
FLAG -208 224 VDD
IOPIN -208 224 In
FLAG 432 320 VDD
IOPIN 432 320 In
FLAG 240 -64 VDD
IOPIN 240 -64 In
FLAG -208 192 CLK
IOPIN -208 192 In
FLAG 128 256 CLK
IOPIN 128 256 In
FLAG -32 336 D
IOPIN -32 336 In
FLAG 640 288 Y
IOPIN 640 288 Out
SYMBOL cmosp\ (3) 160 48 R0
SYMATTR InstName M1
SYMATTR Value2 l=180n w=2400n
SYMBOL cmosp\ (3) 160 176 R0
SYMATTR InstName M2
SYMATTR Value2 l=180n w=2400n
SYMBOL cmosn\ (2) 160 320 R0
SYMATTR InstName M3
SYMATTR Value2 l=180n w=800n
SYMBOL cmosn\ (2) 160 464 R0
SYMATTR InstName M4
SYMATTR Value2 l=180n w=800n
SYMBOL imv3 -112 192 R0
SYMATTR InstName X1
SYMBOL imv3 528 288 R0
SYMATTR InstName X2
