Version 4
SHEET 1 880 680
WIRE 96 -80 16 -80
WIRE 96 -48 64 -48
WIRE 272 -48 224 -48
WIRE 96 -16 16 -16
WIRE -720 80 -720 16
WIRE -576 80 -576 16
WIRE -448 80 -448 16
WIRE 32 160 16 160
WIRE 368 176 336 176
WIRE 32 192 -48 192
WIRE -720 208 -720 160
WIRE -576 208 -576 160
WIRE -576 208 -720 208
WIRE -448 208 -448 160
WIRE -448 208 -576 208
WIRE 368 208 128 208
WIRE 32 224 -32 224
WIRE 528 224 464 224
WIRE -576 240 -576 208
WIRE -576 240 -656 240
WIRE 368 240 320 240
WIRE -576 256 -576 240
WIRE 32 256 -32 256
WIRE 368 272 320 272
FLAG -32 224 GND
IOPIN -32 224 In
FLAG 320 240 GND
IOPIN 320 240 In
FLAG -32 256 VDD
IOPIN -32 256 In
FLAG 320 272 VDD
IOPIN 320 272 In
FLAG -48 192 D
IOPIN -48 192 In
FLAG 528 224 Y
IOPIN 528 224 In
FLAG -576 256 0
FLAG -656 240 GND
IOPIN -656 240 Out
FLAG -720 16 VDD
IOPIN -720 16 Out
FLAG -576 16 CLK
IOPIN -576 16 Out
FLAG -448 16 D
IOPIN -448 16 Out
FLAG 16 -80 GND
IOPIN 16 -80 In
FLAG 16 -16 VDD
IOPIN 16 -16 In
FLAG 272 -48 ~CLK
IOPIN 272 -48 Out
FLAG 64 -48 CLK
IOPIN 64 -48 In
FLAG 16 160 ~CLK
IOPIN 16 160 In
FLAG 336 176 CLK
IOPIN 336 176 In
SYMBOL voltage -720 64 R0
WINDOW 123 0 0 Left 2
WINDOW 39 0 0 Left 2
SYMATTR InstName V1
SYMATTR Value 1.8
SYMBOL voltage -576 64 R0
WINDOW 3 -249 254 Left 2
WINDOW 123 0 0 Left 2
WINDOW 39 0 0 Left 2
SYMATTR Value PULSE(1.8 0 0 10p 10p 0.70n 1.40n)
SYMATTR InstName V2
SYMBOL voltage -448 64 R0
WINDOW 3 34 256 Left 2
WINDOW 123 0 0 Left 2
WINDOW 39 0 0 Left 2
SYMATTR Value PULSE(1.8 0 0 10p 10p 1.60n 3.20n)
SYMATTR InstName V3
SYMBOL imv3 160 -48 R0
SYMATTR InstName X3
SYMBOL Draft3 80 208 R0
SYMATTR InstName X1
SYMBOL Draft3 416 224 R0
SYMATTR InstName X2
TEXT 400 -56 Left 2 !.INCLUDE tsmc018.lib
TEXT -560 384 Left 2 !.tran 8n
TEXT 256 -120 Left 2 ;19BEC0358 ARPIT PATAWAT
