Version 4
SHEET 1 1548 680
WIRE 304 128 288 128
WIRE 720 144 720 80
WIRE 864 144 864 80
WIRE 992 144 992 80
WIRE 160 160 96 160
WIRE 336 160 288 160
WIRE 304 192 288 192
WIRE 336 224 336 160
WIRE 400 224 400 192
WIRE 400 224 336 224
WIRE 720 272 720 224
WIRE 864 272 864 224
WIRE 864 272 720 272
WIRE 992 272 992 224
WIRE 992 272 864 272
WIRE 96 288 96 160
WIRE 144 288 96 288
WIRE 400 288 400 224
WIRE 432 288 400 288
WIRE 864 304 864 272
WIRE 864 304 784 304
WIRE 144 320 128 320
WIRE 432 320 304 320
WIRE 864 320 864 304
WIRE 304 336 304 320
WIRE 304 336 240 336
WIRE 576 336 528 336
WIRE 144 352 128 352
WIRE 432 352 416 352
WIRE 144 384 128 384
WIRE 432 384 416 384
FLAG 128 352 GND
IOPIN 128 352 In
FLAG 416 352 GND
IOPIN 416 352 In
FLAG 128 384 VDD
IOPIN 128 384 In
FLAG 416 384 VDD
IOPIN 416 384 In
FLAG 400 192 CLK
IOPIN 400 192 In
FLAG 128 320 D
IOPIN 128 320 In
FLAG 576 336 Q
IOPIN 576 336 Out
FLAG 304 128 VDD
IOPIN 304 128 In
FLAG 304 192 GND
IOPIN 304 192 In
FLAG 864 320 0
FLAG 784 304 GND
IOPIN 784 304 Out
FLAG 720 80 VDD
IOPIN 720 80 Out
FLAG 864 80 CLK
IOPIN 864 80 Out
FLAG 992 80 D
IOPIN 992 80 Out
SYMBOL Draft1 480 336 R0
SYMATTR InstName X2
SYMBOL imv3 224 160 R180
SYMATTR InstName X3
SYMBOL voltage 720 128 R0
WINDOW 123 0 0 Left 2
WINDOW 39 0 0 Left 2
SYMATTR InstName V1
SYMATTR Value 1.8
SYMBOL voltage 864 128 R0
WINDOW 3 -249 254 Left 2
WINDOW 123 0 0 Left 2
WINDOW 39 0 0 Left 2
SYMATTR Value PULSE(1.8 0 0 10p 10p 0.5n 1n)
SYMATTR InstName V2
SYMBOL voltage 992 128 R0
WINDOW 3 -23 255 Left 2
WINDOW 123 0 0 Left 2
WINDOW 39 0 0 Left 2
SYMATTR Value PULSE(1.8 0 0 10p 10p 1n 2n)
SYMATTR InstName V3
SYMBOL Draft1 192 336 R0
SYMATTR InstName X1
TEXT 312 32 Left 2 !.INCLUDE tsmc018.lib
TEXT 880 448 Left 2 !.tran 8n
TEXT 312 -8 Left 2 ;19BEC0358 ARPIT PATAWAT
