Version 4
SHEET 1 1524 1132
WIRE 224 384 224 304
WIRE 240 384 224 384
WIRE 240 432 240 384
WIRE 240 432 224 432
WIRE 176 464 32 464
WIRE 224 528 224 480
WIRE 448 528 416 528
WIRE -160 544 -208 544
WIRE 768 544 768 480
WIRE 912 544 912 480
WIRE 1040 544 1040 480
WIRE 448 560 320 560
WIRE 624 560 576 560
WIRE -160 576 -208 576
WIRE 144 576 -32 576
WIRE 240 576 240 432
WIRE 240 576 224 576
WIRE 448 592 416 592
WIRE -160 608 -208 608
WIRE 144 608 144 576
WIRE 176 608 144 608
WIRE 224 656 224 624
WIRE 320 656 320 560
WIRE 320 656 224 656
WIRE 32 672 32 464
WIRE 32 672 -16 672
WIRE 768 672 768 624
WIRE 912 672 912 624
WIRE 912 672 768 672
WIRE 1040 672 1040 624
WIRE 1040 672 912 672
WIRE 224 704 224 656
WIRE 912 704 912 672
WIRE 912 704 832 704
WIRE 912 720 912 704
WIRE 336 752 224 752
WIRE 176 784 144 784
WIRE 224 832 224 800
WIRE 336 880 336 752
WIRE 336 880 224 880
WIRE 32 912 32 672
WIRE 176 912 32 912
WIRE 224 944 224 928
WIRE 336 944 336 880
WIRE 336 944 224 944
WIRE 224 992 224 944
FLAG 624 560 Y
IOPIN 624 560 Out
FLAG 224 304 VDD
IOPIN 224 304 In
FLAG 224 992 GND
IOPIN 224 992 In
FLAG -16 672 D
IOPIN -16 672 In
FLAG 144 784 CLK
IOPIN 144 784 In
FLAG 416 592 VDD
IOPIN 416 592 In
FLAG 416 528 GND
IOPIN 416 528 In
FLAG 912 720 0
FLAG 832 704 GND
IOPIN 832 704 Out
FLAG 768 480 VDD
IOPIN 768 480 Out
FLAG 912 480 CLK
IOPIN 912 480 Out
FLAG -208 544 GND
IOPIN -208 544 In
FLAG -208 608 VDD
IOPIN -208 608 In
FLAG -208 576 CLK
IOPIN -208 576 In
FLAG 1040 480 D
IOPIN 1040 480 Out
SYMBOL cmosp\ (3) 176 384 R0
SYMATTR InstName M3
SYMATTR Value2 l=180n w=1200n
SYMBOL cmosp\ (3) 176 528 R0
SYMATTR InstName M4
SYMATTR Value2 l=180n w=1200n
SYMBOL cmosn\ (2) 176 704 R0
SYMATTR InstName M5
SYMATTR Value2 l=180n w=400n
SYMBOL cmosn\ (2) 176 832 R0
SYMATTR InstName M6
SYMATTR Value2 l=180n w=400n
SYMBOL imv3 512 560 R0
SYMATTR InstName X1
SYMBOL voltage 768 528 R0
WINDOW 123 0 0 Left 2
WINDOW 39 0 0 Left 2
SYMATTR InstName V1
SYMATTR Value 1.8
SYMBOL voltage 912 528 R0
WINDOW 3 -249 254 Left 2
WINDOW 123 0 0 Left 2
WINDOW 39 0 0 Left 2
SYMATTR Value PULSE(1.8 0 0 10p 10p 1n 2n)
SYMATTR InstName V2
SYMBOL imv3 -96 576 R0
SYMATTR InstName X2
SYMBOL voltage 1040 528 R0
WINDOW 3 -23 255 Left 2
WINDOW 123 0 0 Left 2
WINDOW 39 0 0 Left 2
SYMATTR Value PULSE(1.8 0 0 10p 10p 0.5n 1n)
SYMATTR InstName V3
TEXT 840 280 Left 2 !.INCLUDE tsmc018.lib
TEXT 928 848 Left 2 !.tran 8n
TEXT 832 328 Left 2 ;19BEC0358 ARPIT PATAWAT
