Version 4
SHEET 1 1096 904
WIRE 704 -128 16 -128
WIRE 544 -112 272 -112
WIRE 272 -96 272 -112
WIRE 272 -96 -96 -96
WIRE 272 -32 272 -96
WIRE 272 -32 192 -32
WIRE 400 -32 320 -32
WIRE 448 -32 400 -32
WIRE 544 -32 544 -112
WIRE 544 -32 528 -32
WIRE -96 -16 -96 -96
WIRE 16 -16 16 -128
WIRE 16 -16 -16 -16
WIRE 192 -16 192 -32
WIRE 272 -16 272 -32
WIRE 320 32 320 -32
WIRE 320 32 272 32
WIRE 400 32 400 -32
WIRE 640 32 400 32
WIRE 96 64 32 64
WIRE 128 64 96 64
WIRE 192 64 128 64
WIRE 432 64 192 64
WIRE 96 80 96 64
WIRE 96 80 -112 80
WIRE 192 80 192 64
WIRE 352 80 192 80
WIRE 32 128 32 64
WIRE 32 128 -112 128
WIRE 128 128 128 64
WIRE 128 128 96 128
WIRE 432 128 432 64
WIRE 432 128 352 128
WIRE -256 144 -352 144
WIRE -176 144 -256 144
WIRE -176 160 -176 144
WIRE -160 160 -176 160
WIRE 16 160 16 -16
WIRE 48 160 16 160
WIRE 272 160 272 32
WIRE 304 160 272 160
WIRE 96 176 -112 176
WIRE 352 176 96 176
WIRE 432 192 432 128
WIRE 432 192 192 192
WIRE 96 224 96 176
WIRE 96 224 48 224
WIRE 272 224 96 224
WIRE -352 256 -352 224
WIRE 192 272 192 192
WIRE 192 272 48 272
WIRE 432 272 432 192
WIRE 432 272 272 272
WIRE -432 304 -544 304
WIRE 0 304 -432 304
WIRE 448 336 304 336
WIRE -544 352 -544 304
WIRE 48 352 48 320
WIRE 48 352 -128 352
WIRE 272 352 272 320
WIRE 272 352 48 352
WIRE 304 352 304 336
WIRE 304 352 272 352
WIRE -256 384 -256 144
WIRE 160 384 -256 384
WIRE -128 400 -128 352
WIRE 304 400 304 352
WIRE -80 448 -128 448
WIRE 336 448 304 448
WIRE -432 480 -432 304
WIRE -176 480 -432 480
WIRE 160 480 160 384
WIRE 256 480 160 480
WIRE -544 496 -544 432
WIRE -544 496 -640 496
WIRE -640 528 -640 496
WIRE 304 528 304 496
WIRE -128 576 -128 496
WIRE 336 576 336 448
WIRE 336 576 304 576
WIRE -80 624 -80 448
WIRE -80 624 -128 624
WIRE 256 624 256 608
WIRE 304 624 256 624
WIRE 704 624 704 -128
WIRE 704 624 304 624
WIRE -176 656 -288 656
WIRE -496 672 -576 672
WIRE -288 672 -288 656
WIRE -288 672 -496 672
WIRE 224 672 224 304
WIRE 224 672 128 672
WIRE 304 688 304 624
WIRE -576 704 -576 672
WIRE -496 736 -496 672
WIRE 128 736 128 672
WIRE 128 736 -496 736
WIRE 336 736 336 576
WIRE 336 736 304 736
WIRE 256 768 208 768
WIRE 208 800 208 768
WIRE 640 800 640 32
WIRE 640 800 208 800
WIRE -576 832 -576 784
WIRE -576 832 -656 832
WIRE -128 832 -128 672
WIRE -80 832 -80 624
WIRE -80 832 -128 832
WIRE 48 832 -80 832
WIRE 304 832 304 784
WIRE 304 832 48 832
WIRE 336 832 336 736
WIRE 336 832 304 832
WIRE 48 864 48 832
FLAG 448 336 VOUT
IOPIN 448 336 Out
FLAG 272 -16 0
FLAG 48 864 0
FLAG -352 256 0
FLAG -640 528 0
FLAG -656 832 0
SYMBOL cmosp\ (3) 48 80 R0
SYMATTR InstName Bp
SYMATTR Value2 l=180n w=2400n
SYMBOL cmosp\ (3) 304 80 R0
SYMATTR InstName Cp
SYMATTR Value2 l=180n w=2400n
SYMBOL cmosp\ (3) -160 80 R0
SYMATTR InstName Ap
SYMATTR Value2 l=180n w=2400n
SYMBOL cmosp\ (3) 0 224 R0
SYMATTR InstName Dp
SYMATTR Value2 l=180n w=2400n
SYMBOL cmosp\ (3) 224 224 R0
SYMATTR InstName Ep
SYMATTR Value2 l=180n w=2400n
SYMBOL voltage 192 80 R180
WINDOW 0 24 96 Left 2
WINDOW 3 45 49 Left 2
WINDOW 123 0 0 Left 2
WINDOW 39 0 0 Left 2
SYMATTR InstName V1
SYMATTR Value 1.358V
SYMBOL cmosn\ (2) -176 400 R0
SYMATTR InstName Dn
SYMATTR Value2 l=180n w=800n
SYMBOL cmosn\ (2) -176 576 R0
SYMATTR InstName En
SYMATTR Value2 l=180n w=800n
SYMBOL cmosn\ (2) 256 400 R0
SYMATTR InstName An
SYMATTR Value2 l=180n w=1200n
SYMBOL cmosn\ (2) 256 528 R0
SYMATTR InstName Bn
SYMATTR Value2 l=180n w=1200n
SYMBOL cmosn\ (2) 256 688 R0
SYMATTR InstName Cn
SYMATTR Value2 l=180n w=1200n
SYMBOL voltage -352 128 R0
WINDOW 123 0 0 Left 2
WINDOW 39 0 0 Left 2
WINDOW 3 -378 74 Left 2
SYMATTR Value PULSE(1.358 0 0 10p 10p 16n 32n)
SYMATTR InstName A
SYMBOL voltage 0 -16 R90
WINDOW 0 -32 56 VBottom 2
WINDOW 3 -6 261 VTop 2
WINDOW 123 0 0 Left 2
WINDOW 39 0 0 Left 2
SYMATTR InstName B
SYMATTR Value PULSE(1.358 0 0 10p 10p 8n 16n)
SYMBOL voltage 432 -32 R270
WINDOW 0 32 56 VTop 2
WINDOW 3 3 286 VBottom 2
WINDOW 123 0 0 Left 2
WINDOW 39 0 0 Left 2
SYMATTR InstName C
SYMATTR Value PULSE(1.358 0 0 10p 10p 4n 8n)
SYMBOL voltage -544 336 R0
WINDOW 3 -398 31 Left 2
WINDOW 123 0 0 Left 2
WINDOW 39 0 0 Left 2
SYMATTR Value PULSE(1.358 0 0 10p 10p 2n 4n)
SYMATTR InstName D
SYMBOL voltage -576 688 R0
WINDOW 123 0 0 Left 2
WINDOW 39 0 0 Left 2
SYMATTR InstName E
SYMATTR Value PULSE(1.358 0 0 10p 10p 1n 2n)
TEXT 776 40 Left 2 !.INCLUDE tsmc018.lib
TEXT -808 600 Left 2 !.tran 32n
