Version 4
SHEET 1 880 680
WIRE 352 80 176 80
WIRE 176 112 176 80
WIRE 96 144 -32 144
WIRE 224 160 176 160
WIRE 352 160 352 80
WIRE 96 192 96 144
WIRE 128 192 96 192
WIRE 176 224 176 208
WIRE 176 224 -16 224
WIRE -32 272 -32 224
WIRE -16 272 -16 224
WIRE -16 272 -32 272
WIRE 64 272 -16 272
WIRE 224 272 224 160
WIRE 224 272 144 272
WIRE 352 272 352 240
WIRE 352 272 224 272
WIRE 224 288 224 272
FLAG 224 288 0
SYMBOL cmosp\ (3) 128 112 R0
SYMATTR InstName M1
SYMATTR Value2 l=180n w=180n
SYMBOL voltage -32 128 R0
WINDOW 3 -117 65 Left 2
SYMATTR InstName Vgs
SYMATTR Value -1.358
SYMBOL voltage 352 144 R0
SYMATTR InstName Vds
SYMATTR Value -1.358
SYMBOL voltage 160 272 R90
WINDOW 0 68 -14 VBottom 2
WINDOW 3 32 56 VTop 2
SYMATTR InstName Vsb
SYMATTR Value 1
TEXT 312 -16 Left 2 !.INCLUDE tsmc018.lib
TEXT -216 48 Left 2 ;19BEC0358 ARPIT PATAWAT
TEXT -288 320 Left 2 !.dc Vgs 0 -1.358 -0.1 Vsb 0 1 0.5
