Version 4
SHEET 1 880 680
WIRE 352 80 176 80
WIRE 176 112 176 80
WIRE 96 144 0 144
WIRE 224 160 176 160
WIRE 352 160 352 80
WIRE 0 176 0 144
WIRE 96 192 96 144
WIRE 128 192 96 192
WIRE 176 240 176 208
WIRE 224 240 224 160
WIRE 224 240 176 240
WIRE 0 272 0 256
WIRE 176 272 176 240
WIRE 176 272 0 272
WIRE 352 272 352 240
WIRE 352 272 176 272
WIRE 176 288 176 272
FLAG 176 288 0
SYMBOL cmosp\ (3) 128 112 R0
SYMATTR InstName M1
SYMATTR Value2 l=180n w=180n
SYMBOL voltage 0 160 R0
SYMATTR InstName Vgs
SYMATTR Value -1.358
SYMBOL voltage 352 144 R0
SYMATTR InstName Vds
SYMATTR Value -1.358
TEXT 304 24 Left 2 !.INCLUDE tsmc018.lib
TEXT 256 64 Left 2 ;19BEC0358 ARPIT PATAWAT
TEXT -32 312 Left 2 !.dc Vds 0 -1.358 -0.1
