Version 4
SHEET 1 908 680
WIRE -176 -288 -96 -336
WIRE -176 -208 -96 -256
WIRE 96 -192 224 -304
WIRE -192 -160 -256 -160
WIRE 16 -160 -96 -160
WIRE 368 -128 448 -256
WIRE 96 -112 224 -224
WIRE 16 -64 16 -160
WIRE 80 -64 16 -64
WIRE 256 -64 176 -64
WIRE 368 -48 448 -176
WIRE 256 0 256 -64
WIRE 352 0 256 0
WIRE 560 0 448 0
WIRE -448 48 -256 0
WIRE -368 48 -176 0
WIRE 16 48 16 -64
WIRE 16 48 -96 48
WIRE 560 80 560 0
WIRE 624 80 560 80
WIRE 256 128 256 0
WIRE 256 128 176 128
WIRE 560 176 560 80
WIRE 560 176 464 176
WIRE -64 240 96 80
WIRE 224 288 384 128
WIRE 304 288 464 80
FLAG -192 48 0
FLAG 80 128 0
FLAG 368 176 0
FLAG -144 -160 0
FLAG 128 -64 0
FLAG 128 128 0
FLAG -144 48 0
FLAG 400 0 0
FLAG 416 176 0
FLAG -256 0 0
FLAG 464 80 0
FLAG -336 -160 0
FLAG -176 -288 0
FLAG 96 -192 0
FLAG 368 -128 0
FLAG 624 80 Y
IOPIN 624 80 Out
FLAG -64 160 0
SYMBOL cmosn\ (2) -96 -208 R90
SYMATTR InstName M1
SYMATTR Value2 l=180n w=180n
SYMBOL cmosn\ (2) -96 0 R90
SYMATTR InstName M2
SYMATTR Value2 l=180n w=180n
SYMBOL cmosn\ (2) 176 -112 R90
SYMATTR InstName M3
SYMATTR Value2 l=180n w=180n
SYMBOL cmosn\ (2) 176 80 R90
SYMATTR InstName M4
SYMATTR Value2 l=180n w=180n
SYMBOL cmosn\ (2) 448 -48 R90
SYMATTR InstName M5
SYMATTR Value2 l=180n w=180n
SYMBOL cmosn\ (2) 464 128 R90
SYMATTR InstName M6
SYMATTR Value2 l=180n w=180n
SYMBOL voltage -240 -160 R90
WINDOW 0 -32 56 VBottom 2
WINDOW 3 32 56 VTop 2
WINDOW 123 0 0 Left 2
WINDOW 39 0 0 Left 2
SYMATTR InstName V1
SYMATTR Value PULSE(1.8 0 0 10p 10p 8n 16n)
SYMBOL voltage -96 -240 R180
WINDOW 0 24 96 Left 2
WINDOW 3 24 16 Left 2
WINDOW 123 0 0 Left 2
WINDOW 39 0 0 Left 2
SYMATTR InstName V2
SYMATTR Value PULSE(1.8 0 0 10p 10p 4n 8n)
SYMBOL voltage 224 -208 R180
WINDOW 0 24 96 Left 2
WINDOW 3 24 16 Left 2
WINDOW 123 0 0 Left 2
WINDOW 39 0 0 Left 2
SYMATTR InstName V3
SYMATTR Value PULSE(1.8 0 0 10p 10p 2n 4n)
SYMBOL voltage 448 -160 R180
WINDOW 0 24 96 Left 2
WINDOW 3 24 16 Left 2
WINDOW 123 0 0 Left 2
WINDOW 39 0 0 Left 2
SYMATTR InstName V4
SYMATTR Value PULSE(1.8 0 0 10p 10p 1n 2n)
SYMBOL voltage 208 288 R270
WINDOW 0 32 56 VTop 2
WINDOW 3 -32 56 VBottom 2
WINDOW 123 0 0 Left 2
WINDOW 39 0 0 Left 2
SYMATTR InstName V5
SYMATTR Value PULSE(0 1.80 0 10p 10p 1n 2n)
SYMBOL voltage -64 256 R180
WINDOW 0 24 96 Left 2
WINDOW 3 24 16 Left 2
WINDOW 123 0 0 Left 2
WINDOW 39 0 0 Left 2
SYMATTR InstName V6
SYMATTR Value PULSE(0 1.80 0 10p 10p 2n 4n)
SYMBOL voltage -352 48 R90
WINDOW 0 -32 56 VBottom 2
WINDOW 3 32 56 VTop 2
WINDOW 123 0 0 Left 2
WINDOW 39 0 0 Left 2
SYMATTR InstName V7
SYMATTR Value PULSE(0 1.80 0 10p 10p 4n 8n)
TEXT 536 -280 Left 2 !.INCLUDE tsmc018.lib
TEXT 528 -240 Left 2 ;19BEC0358 ARPIT PATAWAT
TEXT -578 290 Left 2 !.tran 16n
