Version 4
SHEET 1 908 680
WIRE -128 -240 -160 -240
WIRE 128 -240 -48 -240
WIRE 128 -192 128 -240
WIRE -160 -160 -160 -240
WIRE -96 -160 -160 -160
WIRE -160 -144 -160 -160
WIRE 112 -144 -16 -144
WIRE 432 -144 208 -144
WIRE -16 -128 -16 -144
WIRE -96 -48 -96 -160
WIRE -16 -48 -96 -48
WIRE 160 -48 160 -144
WIRE 160 -48 -16 -48
WIRE 432 0 432 -144
WIRE 464 0 432 0
WIRE -128 64 -160 64
WIRE 128 64 -48 64
WIRE 128 96 128 64
WIRE 112 144 -16 144
WIRE 432 144 432 0
WIRE 432 144 208 144
WIRE -160 160 -160 64
WIRE -96 160 -160 160
WIRE -16 176 -16 144
WIRE -160 192 -160 160
WIRE -96 288 -96 160
WIRE -16 288 -16 256
WIRE -16 288 -96 288
WIRE 160 288 160 144
WIRE 160 288 -16 288
FLAG -160 -144 0
FLAG -160 192 0
FLAG 464 0 VOUT
IOPIN 464 0 Out
SYMBOL cmosn\ (2) 208 96 R90
WINDOW 0 -51 -23 VRight 2
WINDOW 3 -23 -54 VRight 2
SYMATTR InstName M1
SYMATTR Value2 l=180n w=180n
SYMBOL cmosn\ (2) 208 -192 R90
WINDOW 0 -49 -6 VRight 2
WINDOW 3 -19 -50 VRight 2
SYMATTR InstName M2
SYMATTR Value2 l=180n w=180n
SYMBOL voltage -16 -144 R0
WINDOW 3 -430 81 Left 2
WINDOW 123 0 0 Left 2
WINDOW 39 0 0 Left 2
SYMATTR Value PULSE(1.358 0 0 10p 10p 1n 2n)
SYMATTR InstName B
SYMBOL voltage -16 160 R0
WINDOW 3 -445 109 Left 2
WINDOW 123 0 0 Left 2
WINDOW 39 0 0 Left 2
SYMATTR Value PULSE(1.358 0 0 10p 10p 2n 4n)
SYMATTR InstName A
SYMBOL voltage -32 -240 R90
WINDOW 0 -32 56 VBottom 2
WINDOW 3 -56 272 VTop 2
WINDOW 123 0 0 Left 2
WINDOW 39 0 0 Left 2
SYMATTR InstName S
SYMATTR Value PULSE(1.358 0 0 10p 10p 4n 8n)
SYMBOL voltage -32 64 R90
WINDOW 0 -32 56 VBottom 2
WINDOW 3 -1 307 VTop 2
WINDOW 123 0 0 Left 2
WINDOW 39 0 0 Left 2
SYMATTR InstName SBAR
SYMATTR Value PULSE(0 1.358 0 10p 10p 4n 8n)
TEXT 536 -280 Left 2 !.INCLUDE tsmc018.lib
TEXT -528 296 Left 2 !.tran 16n
TEXT 528 -240 Left 2 ;19BEC0358 ARPIT PATAWAT
