Version 4
SHEET 1 1068 740
WIRE 272 -80 176 -80
WIRE 416 -80 352 -80
WIRE 416 -64 416 -80
WIRE 176 0 176 -80
WIRE -64 80 -176 80
WIRE 160 80 160 48
WIRE 160 80 16 80
WIRE 208 80 208 48
WIRE 256 112 256 48
WIRE 464 112 256 112
WIRE 128 144 -16 144
WIRE 208 144 128 144
WIRE 160 192 160 80
WIRE 208 192 208 144
WIRE 256 192 256 112
WIRE -16 224 -16 144
WIRE 240 256 240 240
WIRE 400 256 240 256
WIRE 464 256 464 112
WIRE 496 256 464 256
WIRE 336 272 176 272
WIRE 176 288 176 272
WIRE -16 320 -16 304
WIRE 208 368 208 336
WIRE 128 400 128 144
WIRE 208 400 128 400
WIRE 256 400 256 336
WIRE 464 400 464 256
WIRE 464 400 256 400
WIRE 336 416 336 272
WIRE 656 416 336 416
WIRE 800 416 736 416
WIRE -64 432 -192 432
WIRE 160 432 160 336
WIRE 160 432 16 432
WIRE 800 432 800 416
WIRE 400 464 400 256
WIRE 160 480 160 432
WIRE 208 480 208 400
WIRE 256 480 256 400
WIRE 400 592 400 544
WIRE 128 624 128 576
WIRE 128 736 128 704
WIRE 240 736 240 528
WIRE 240 736 128 736
FLAG 416 -64 0
FLAG -176 80 0
FLAG 208 80 0
FLAG 208 368 0
FLAG -16 320 0
FLAG -192 432 0
FLAG 496 256 VOUT
IOPIN 496 256 Out
FLAG 400 592 0
FLAG 800 432 0
FLAG 128 576 0
SYMBOL cmosn\ (2) 256 288 R90
WINDOW 0 59 17 Left 2
SYMATTR InstName M1
SYMATTR Value2 l=180n w=180n
SYMBOL cmosn\ (2) 256 0 R90
WINDOW 0 58 21 Left 2
SYMATTR InstName M2
SYMATTR Value2 l=180n w=180n
SYMBOL cmosp\ (3) 160 528 R270
WINDOW 0 62 23 Left 2
WINDOW 3 55 79 Left 2
SYMATTR InstName M3
SYMATTR Value2 l=180n w=180n
SYMBOL cmosp\ (3) 160 240 R270
WINDOW 0 57 21 Left 2
SYMATTR InstName M4
SYMATTR Value2 l=180n w=180n
SYMBOL voltage 256 -80 R270
WINDOW 0 32 56 VTop 2
WINDOW 3 89 32 VBottom 2
WINDOW 123 0 0 Left 2
WINDOW 39 0 0 Left 2
SYMATTR InstName B
SYMATTR Value PULSE(1.358 0 0 10p 10p 4n 8n)
SYMBOL voltage 32 80 R90
WINDOW 0 -39 97 VRight 2
WINDOW 3 39 81 VRight 2
WINDOW 123 0 0 Left 2
WINDOW 39 0 0 Left 2
SYMATTR InstName A
SYMATTR Value PULSE(1.358 0 0 10p 10p 8n 16n)
SYMBOL voltage -16 208 R0
WINDOW 123 0 0 Left 2
WINDOW 39 0 0 Left 2
SYMATTR InstName V1
SYMATTR Value 1.358
SYMBOL voltage 32 432 R90
WINDOW 0 -32 56 VBottom 2
WINDOW 3 32 56 VTop 2
WINDOW 123 0 0 Left 2
WINDOW 39 0 0 Left 2
SYMATTR InstName C
SYMATTR Value PULSE(1.358 0 0 10p 10p 2n 4n)
SYMBOL voltage 400 448 R0
WINDOW 123 0 0 Left 2
WINDOW 39 0 0 Left 2
SYMATTR InstName BBAR
SYMATTR Value PULSE(0 1.358 0 10p 10p 4n 8n)
SYMBOL voltage 640 416 R270
WINDOW 0 32 56 VTop 2
WINDOW 3 89 32 VBottom 2
WINDOW 123 0 0 Left 2
WINDOW 39 0 0 Left 2
SYMATTR InstName D
SYMATTR Value PULSE(1.358 0 0 10p 10p 1n 2n)
SYMBOL voltage 128 720 R180
WINDOW 123 0 0 Left 2
WINDOW 39 0 0 Left 2
SYMATTR InstName BBAR1
SYMATTR Value PULSE(0 1.358 0 10p 10p 1n 2n)
TEXT 688 -136 Left 2 !.INCLUDE tsmc018.lib
TEXT -360 616 Left 2 !.tran 16n
TEXT 672 -48 Left 2 ;19BEC0358 ARPIT PATAWAT
