Version 4
SHEET 1 880 680
WIRE 16 112 -32 112
WIRE 144 112 96 112
WIRE 144 144 144 112
WIRE 160 144 144 144
WIRE -32 160 -32 112
WIRE 16 160 -32 160
WIRE 128 160 96 160
WIRE 128 176 128 160
WIRE 160 176 128 176
WIRE -32 192 -32 160
WIRE 272 192 256 192
WIRE 160 208 128 208
WIRE 160 240 128 240
WIRE 16 256 16 160
WIRE 128 256 128 240
WIRE 128 256 96 256
FLAG 128 208 0
FLAG -32 192 0
FLAG 272 192 Y
IOPIN 272 192 Out
SYMBOL Draft3 208 192 R0
SYMATTR InstName X1
SYMBOL voltage 112 112 R90
WINDOW 0 -32 56 VBottom 2
WINDOW 3 -79 82 VTop 2
WINDOW 123 0 0 Left 2
WINDOW 39 0 0 Left 2
SYMATTR InstName V1
SYMATTR Value PULSE(1.8 0 0 10p 10p 4n 8n)
SYMBOL voltage 112 160 R90
WINDOW 0 -32 56 VBottom 2
WINDOW 3 164 134 VTop 2
WINDOW 123 0 0 Left 2
WINDOW 39 0 0 Left 2
SYMATTR InstName V2
SYMATTR Value PULSE(1.8 0 0 10p 10p 2n 4n)
SYMBOL voltage 112 256 R90
WINDOW 0 -32 56 VBottom 2
WINDOW 3 32 56 VTop 2
WINDOW 123 0 0 Left 2
WINDOW 39 0 0 Left 2
SYMATTR InstName V3
SYMATTR Value 1.8
TEXT 296 48 Left 2 !.INCLUDE tsmc018.lib
TEXT 154 270 Left 2 !.tran 16n
