Version 4
SHEET 1 1444 680
WIRE 1344 -256 1280 -256
WIRE 1408 -256 1344 -256
WIRE 1344 -224 1344 -256
WIRE 416 -176 176 -176
WIRE 752 -176 576 -176
WIRE 1136 -176 896 -176
WIRE 1024 -160 960 -160
WIRE 1408 -160 1408 -256
WIRE 1408 -160 1344 -160
WIRE 272 -144 240 -144
WIRE 304 -144 272 -144
WIRE 960 -144 960 -160
WIRE 992 -144 960 -144
WIRE 272 -128 272 -144
WIRE 656 -128 640 -128
WIRE 704 -128 656 -128
WIRE 1280 -128 1280 -256
WIRE 1344 -128 1344 -160
WIRE 1408 -128 1408 -160
WIRE 656 -112 656 -128
WIRE 960 -96 960 -144
WIRE 1024 -96 1024 -160
WIRE 304 -80 304 -144
WIRE -96 -64 -96 -112
WIRE 240 -64 240 -144
WIRE 640 -48 640 -128
WIRE 704 -48 704 -128
WIRE 1280 -16 1280 -48
WIRE 1296 -16 1280 -16
WIRE 1344 0 1344 -48
WIRE 1344 0 1328 0
WIRE 1408 0 1408 -48
WIRE 1408 0 1360 0
WIRE 960 32 960 -16
WIRE 960 32 944 32
WIRE 1024 32 1024 -16
WIRE 1024 32 976 32
WIRE 176 48 176 -176
WIRE 176 48 160 48
WIRE 240 48 240 16
WIRE 240 48 192 48
WIRE 576 48 576 -176
WIRE 576 48 560 48
WIRE 624 48 640 32
WIRE 624 48 592 48
WIRE -96 64 -96 16
WIRE 304 64 304 0
WIRE 304 64 224 64
WIRE 704 64 704 32
WIRE 704 64 624 64
WIRE 896 64 896 -176
WIRE 912 64 896 64
WIRE 496 80 496 32
WIRE 528 80 528 48
WIRE 560 80 560 48
WIRE 592 80 592 48
WIRE 624 80 624 64
WIRE 848 80 848 32
WIRE 880 80 880 32
WIRE 912 80 912 64
WIRE 944 80 944 32
WIRE 976 80 976 32
WIRE 1232 80 1232 32
WIRE 1264 80 1264 48
WIRE 1296 80 1296 -16
WIRE 1328 80 1328 0
WIRE 1360 80 1360 0
WIRE 96 96 96 48
WIRE 128 96 128 48
WIRE 160 96 160 48
WIRE 192 96 192 48
WIRE 224 96 224 64
WIRE 176 320 176 256
WIRE 192 320 176 320
WIRE 1136 320 1136 -176
WIRE 1312 320 1312 240
WIRE 1312 320 1136 320
WIRE 144 336 144 256
WIRE 416 336 416 -176
WIRE 576 336 576 240
WIRE 576 336 416 336
WIRE 752 336 752 -176
WIRE 928 336 928 240
WIRE 928 336 752 336
WIRE 544 352 544 240
WIRE 896 368 896 240
WIRE 912 368 896 368
WIRE 1280 368 1280 240
FLAG 128 48 0
FLAG 528 48 0
FLAG 880 32 0
FLAG 1264 48 0
FLAG -96 -112 0
FLAG -96 64 VDD
IOPIN -96 64 Out
FLAG 96 48 VDD
IOPIN 96 48 In
FLAG 496 32 VDD
IOPIN 496 32 In
FLAG 848 32 VDD
IOPIN 848 32 In
FLAG 1232 32 VDD
IOPIN 1232 32 In
FLAG 272 -128 0
FLAG 656 -112 0
FLAG 992 -144 0
FLAG 1344 -224 0
FLAG 1280 368 s1
IOPIN 1280 368 Out
FLAG 912 368 s2
IOPIN 912 368 Out
FLAG 544 352 s3
IOPIN 544 352 Out
FLAG 144 336 s4
IOPIN 144 336 Out
FLAG 192 320 c4
IOPIN 192 320 Out
SYMBOL Draft1 160 176 R90
SYMATTR InstName X1
SYMBOL Draft1 560 160 R90
SYMATTR InstName X2
SYMBOL Draft1 912 160 R90
SYMATTR InstName X3
SYMBOL Draft1 1296 160 R90
SYMATTR InstName X4
SYMBOL voltage 240 32 R180
WINDOW 0 24 96 Left 2
WINDOW 3 24 16 Left 2
WINDOW 123 0 0 Left 2
WINDOW 39 0 0 Left 2
SYMATTR InstName V1
SYMATTR Value 1.8
SYMBOL voltage 640 48 R180
WINDOW 0 24 96 Left 2
WINDOW 3 24 16 Left 2
WINDOW 123 0 0 Left 2
WINDOW 39 0 0 Left 2
SYMATTR InstName V3
SYMATTR Value 1.8
SYMBOL voltage 704 48 R180
WINDOW 0 24 96 Left 2
WINDOW 3 24 16 Left 2
WINDOW 123 0 0 Left 2
WINDOW 39 0 0 Left 2
SYMATTR InstName V5
SYMATTR Value 0
SYMBOL voltage 304 16 R180
WINDOW 0 24 96 Left 2
WINDOW 3 24 16 Left 2
WINDOW 123 0 0 Left 2
WINDOW 39 0 0 Left 2
SYMATTR InstName V6
SYMATTR Value 1.8
SYMBOL voltage 960 0 R180
WINDOW 0 24 96 Left 2
WINDOW 3 24 16 Left 2
WINDOW 123 0 0 Left 2
WINDOW 39 0 0 Left 2
SYMATTR InstName V8
SYMATTR Value 0
SYMBOL voltage 1024 0 R180
WINDOW 0 24 96 Left 2
WINDOW 3 24 16 Left 2
WINDOW 123 0 0 Left 2
WINDOW 39 0 0 Left 2
SYMATTR InstName V9
SYMATTR Value 1.8
SYMBOL voltage 1280 -32 R180
WINDOW 0 24 96 Left 2
WINDOW 3 24 16 Left 2
WINDOW 123 0 0 Left 2
WINDOW 39 0 0 Left 2
SYMATTR InstName V10
SYMATTR Value 0
SYMBOL voltage 1344 -32 R180
WINDOW 0 24 96 Left 2
WINDOW 3 24 16 Left 2
WINDOW 123 0 0 Left 2
WINDOW 39 0 0 Left 2
SYMATTR InstName V11
SYMATTR Value 1.8
SYMBOL voltage 1408 -32 R180
WINDOW 0 24 96 Left 2
WINDOW 3 24 16 Left 2
WINDOW 123 0 0 Left 2
WINDOW 39 0 0 Left 2
SYMATTR InstName V12
SYMATTR Value 1.8
SYMBOL voltage -96 32 R180
WINDOW 0 24 96 Left 2
WINDOW 3 24 16 Left 2
WINDOW 123 0 0 Left 2
WINDOW 39 0 0 Left 2
SYMATTR InstName V13
SYMATTR Value 1.8
TEXT 712 -296 Left 2 !.INCLUDE tsmc018.lib
TEXT 568 -296 Left 2 !.tran 5n
TEXT 592 -256 Left 2 ;19BEC0358 ARPIT PATAWAT
