Version 4
SHEET 1 880 680
SYMBOL Draft5 -32 80 R0
SYMATTR InstName X1
TEXT 416 -184 Left 2 !.INCLUDE tsmc018.lib
TEXT -86 174 Left 2 !.tran 16n
