Version 4
SHEET 1 880 680
WIRE 176 32 128 32
WIRE 176 48 176 32
WIRE 176 48 144 48
WIRE 320 48 176 48
WIRE 144 64 144 48
WIRE 144 64 80 64
WIRE 272 64 144 64
WIRE 80 80 80 64
WIRE 272 80 272 64
WIRE 144 128 144 64
WIRE 144 128 80 128
WIRE 320 128 320 48
WIRE 320 128 272 128
WIRE 32 160 0 160
WIRE 224 160 192 160
WIRE 80 208 80 176
WIRE 240 208 80 208
WIRE 272 208 272 176
WIRE 272 208 240 208
WIRE 240 224 240 208
WIRE 352 224 240 224
WIRE 320 272 240 272
WIRE 192 304 144 304
WIRE 240 352 240 320
WIRE 320 400 320 272
WIRE 320 400 240 400
WIRE 192 432 160 432
WIRE 240 480 240 448
WIRE 288 480 240 480
WIRE 320 480 320 400
WIRE 320 480 288 480
WIRE 288 528 288 480
FLAG 128 32 VDD
IOPIN 128 32 In
FLAG 288 528 GND
IOPIN 288 528 In
FLAG 0 160 A
IOPIN 0 160 In
FLAG 192 160 B
IOPIN 192 160 In
FLAG 144 304 A
IOPIN 144 304 In
FLAG 160 432 B
IOPIN 160 432 In
FLAG 352 224 Y
IOPIN 352 224 Out
SYMBOL cmosp\ (3) 224 80 R0
SYMATTR InstName M1
SYMATTR Value2 l=180n w=1200n
SYMBOL cmosp\ (3) 32 80 R0
SYMATTR InstName M2
SYMATTR Value2 l=180n w=1200n
SYMBOL cmosn\ (2) 192 224 R0
SYMATTR InstName M3
SYMATTR Value2 l=180n w=800n
SYMBOL cmosn\ (2) 192 352 R0
SYMATTR InstName M4
SYMATTR Value2 l=180n w=800n
