Version 4
SHEET 1 1700 748
WIRE 1264 -320 1248 -320
WIRE 608 -240 608 -304
WIRE 832 -240 832 -304
WIRE 1056 -240 1056 -304
WIRE 1248 -240 1248 -320
WIRE -192 -176 -224 -176
WIRE 1056 -160 928 -160
WIRE -192 -144 -240 -144
WIRE 32 -144 0 -144
WIRE 928 -128 928 -160
WIRE 1248 -128 1248 -160
WIRE 1248 -128 928 -128
WIRE -192 -112 -224 -112
WIRE 32 -112 -96 -112
WIRE 160 -112 288 -128
WIRE 608 -112 608 -160
WIRE 832 -112 832 -160
WIRE 832 -112 608 -112
WIRE 928 -112 928 -128
WIRE 928 -112 832 -112
WIRE 928 -96 928 -112
WIRE 1024 -96 928 -96
WIRE -192 -80 -224 -80
WIRE 32 -80 -16 -80
WIRE -192 -48 -224 -48
WIRE 928 -48 928 -96
WIRE 288 32 288 -128
WIRE 128 48 288 32
WIRE 128 128 128 48
WIRE 128 128 272 112
WIRE 992 352 928 352
WIRE 992 384 848 384
WIRE 1168 384 1120 384
WIRE 960 544 944 544
WIRE 960 560 960 544
WIRE 1008 560 960 560
WIRE 1008 592 976 592
WIRE 1200 592 1136 592
WIRE 976 608 976 592
WIRE 976 608 880 608
WIRE 1008 624 976 624
WIRE 976 640 976 624
WIRE 976 640 944 640
FLAG 928 -48 0
FLAG 608 -304 A
IOPIN 608 -304 Out
FLAG 832 -304 B
IOPIN 832 -304 Out
FLAG 1056 -304 C
IOPIN 1056 -304 Out
FLAG 1264 -320 VDD
IOPIN 1264 -320 Out
FLAG 1024 -96 GND
IOPIN 1024 -96 Out
FLAG 848 384 A
IOPIN 848 384 Out
FLAG 880 608 B
IOPIN 880 608 Out
FLAG 1168 384 ~A
IOPIN 1168 384 Out
FLAG 1200 592 ~B
IOPIN 1200 592 Out
FLAG 272 112 y
IOPIN 272 112 Out
FLAG 0 -144 GND
IOPIN 0 -144 In
FLAG -16 -80 VDD
IOPIN -16 -80 In
FLAG 928 352 GND
IOPIN 928 352 In
FLAG 928 416 VDD
IOPIN 928 416 In
FLAG 944 544 GND
IOPIN 944 544 In
FLAG 944 640 VDD
IOPIN 944 640 In
FLAG -224 -176 ~A
IOPIN -224 -176 In
FLAG -240 -144 ~B
IOPIN -240 -144 In
FLAG -224 -112 C
IOPIN -224 -112 In
FLAG -224 -80 GND
IOPIN -224 -80 In
FLAG -224 -48 VDD
IOPIN -224 -48 In
SYMBOL nand -144 -112 R0
SYMATTR InstName X4
SYMBOL imv3 96 -112 R0
SYMATTR InstName X1
SYMBOL imv3 1056 384 R0
SYMATTR InstName X2
SYMBOL imv3 1072 592 R0
SYMATTR InstName X3
SYMBOL voltage 608 -256 R0
WINDOW 3 -183 -111 Left 2
WINDOW 123 0 0 Left 2
WINDOW 39 0 0 Left 2
SYMATTR InstName V1
SYMATTR Value PULSE(1.8 0 0 10p 10p 4n 8n)
SYMBOL voltage 832 -256 R0
WINDOW 3 269 199 Left 2
WINDOW 123 0 0 Left 2
WINDOW 39 0 0 Left 2
SYMATTR InstName V2
SYMATTR Value PULSE(1.8 0 0 10p 10p 2n 4n)
SYMBOL voltage 1056 -256 R0
WINDOW 123 0 0 Left 2
WINDOW 39 0 0 Left 2
SYMATTR InstName V3
SYMATTR Value 1.8
SYMBOL voltage 1248 -256 R0
WINDOW 123 0 0 Left 2
WINDOW 39 0 0 Left 2
SYMATTR InstName V4
SYMATTR Value 1.8
TEXT 864 208 Left 2 !.INCLUDE tsmc018.lib
TEXT -342 716 Left 2 !.tran 8n
