Version 4
SHEET 1 880 680
WIRE 160 0 48 0
WIRE 48 32 48 0
WIRE 64 32 48 32
WIRE 160 80 160 0
WIRE 208 80 160 80
WIRE 208 128 208 80
WIRE 208 128 160 128
WIRE 112 160 32 160
WIRE 224 176 160 176
WIRE 32 192 32 160
WIRE 32 192 -48 192
WIRE 160 192 160 176
WIRE -48 224 -48 192
WIRE 176 240 160 240
WIRE 32 272 32 192
WIRE 112 272 32 272
WIRE 160 304 160 288
WIRE 176 304 176 240
WIRE 176 304 160 304
WIRE 192 304 176 304
FLAG 64 32 VDD
IOPIN 64 32 In
FLAG 192 304 GND
IOPIN 192 304 In
FLAG 224 176 OUT
IOPIN 224 176 Out
FLAG -48 224 IN
IOPIN -48 224 In
SYMBOL cmosp\ (3) 112 80 R0
SYMATTR InstName M1
SYMATTR Value2 l=180n w=1200n
SYMBOL cmosn\ (2) 112 192 R0
SYMATTR InstName M2
SYMATTR Value2 l=180n w=400n
