Version 4
SHEET 1 880 792
WIRE 480 48 304 48
WIRE 128 64 64 64
WIRE 256 64 256 32
WIRE 256 64 128 64
WIRE 304 64 304 48
WIRE 304 64 256 64
WIRE 416 64 304 64
WIRE 64 80 64 64
WIRE 256 80 256 64
WIRE 416 80 416 64
WIRE 128 128 128 64
WIRE 128 128 64 128
WIRE 304 128 304 64
WIRE 304 128 256 128
WIRE 480 128 480 48
WIRE 480 128 416 128
WIRE 16 160 -16 160
WIRE 208 160 176 160
WIRE 368 160 352 160
WIRE 352 176 352 160
WIRE 64 208 64 176
WIRE 256 208 256 176
WIRE 256 208 64 208
WIRE 416 208 416 176
WIRE 416 208 256 208
WIRE 256 240 256 208
WIRE 576 240 256 240
WIRE 256 256 256 240
WIRE 352 304 256 304
WIRE 208 336 176 336
WIRE 256 384 256 352
WIRE 352 432 352 304
WIRE 352 432 256 432
WIRE 208 464 176 464
WIRE 256 528 256 480
WIRE 352 576 352 432
WIRE 352 576 256 576
WIRE 208 608 176 608
WIRE 256 640 256 624
WIRE 352 640 352 576
WIRE 352 640 256 640
WIRE 256 672 256 640
FLAG 256 32 VDD
IOPIN 256 32 In
FLAG 256 672 GND
IOPIN 256 672 In
FLAG -16 160 A
IOPIN -16 160 In
FLAG 176 160 B
IOPIN 176 160 In
FLAG 352 176 C
IOPIN 352 176 In
FLAG 176 336 A
IOPIN 176 336 In
FLAG 176 464 B
IOPIN 176 464 In
FLAG 176 608 C
IOPIN 176 608 In
FLAG 576 240 Y
IOPIN 576 240 Out
SYMBOL cmosp\ (3) 16 80 R0
SYMATTR InstName M1
SYMATTR Value2 l=180n w=1200n
SYMBOL cmosp\ (3) 208 80 R0
SYMATTR InstName M2
SYMATTR Value2 l=180n w=1200n
SYMBOL cmosp\ (3) 368 80 R0
SYMATTR InstName M3
SYMATTR Value2 l=180n w=1200n
SYMBOL cmosn\ (2) 208 256 R0
SYMATTR InstName M4
SYMATTR Value2 l=180n w=1200n
SYMBOL cmosn\ (2) 208 384 R0
SYMATTR InstName M5
SYMATTR Value2 l=180n w=1200n
SYMBOL cmosn\ (2) 208 528 R0
SYMATTR InstName M6
SYMATTR Value2 l=180n w=1200n
