Version 4
SHEET 1 880 680
WIRE 208 48 176 48
WIRE 224 48 208 48
WIRE 336 48 304 48
WIRE 176 64 176 48
WIRE 208 64 208 48
WIRE 224 64 208 64
WIRE 336 80 336 48
WIRE 224 112 224 64
WIRE 224 112 176 112
WIRE 16 144 -48 144
WIRE 96 144 16 144
WIRE 128 144 96 144
WIRE 352 144 320 144
WIRE 320 160 320 144
WIRE 320 160 176 160
WIRE 176 176 176 160
WIRE 16 192 16 144
WIRE 288 224 176 224
WIRE 96 256 96 144
WIRE 128 256 96 256
WIRE 288 272 288 224
WIRE 288 272 176 272
WIRE 16 288 16 272
WIRE 176 304 176 272
FLAG 16 288 0
FLAG 352 144 Vout
IOPIN 352 144 Out
FLAG -48 144 Vin
IOPIN -48 144 In
FLAG 336 80 0
FLAG 176 304 0
SYMBOL cmosp\ (3) 128 64 R0
SYMATTR InstName M1
SYMATTR Value2 l=180n w=800n
SYMBOL cmosn\ (2) 128 176 R0
SYMATTR InstName M2
SYMATTR Value2 l=180n w=400n
SYMBOL voltage 16 176 R0
WINDOW 3 -335 58 Left 2
WINDOW 123 0 0 Left 2
WINDOW 39 0 0 Left 2
SYMATTR Value PULSE(1.358 0 0 10p 10p 2n 4n)
SYMATTR InstName V1
SYMBOL voltage 208 48 R270
WINDOW 0 32 56 VTop 2
WINDOW 3 -32 56 VBottom 2
SYMATTR InstName VDD
SYMATTR Value 1.358
TEXT 344 40 Left 2 !.INCLUDE tsmc018.lib
TEXT -152 328 Left 2 !.tran 8n
