Version 4
SHEET 1 1572 904
WIRE 848 -176 832 -176
WIRE 848 -96 848 -176
WIRE 848 -96 704 -96
WIRE 1040 -96 848 -96
WIRE 704 -48 704 -96
WIRE 848 -48 848 -96
WIRE 1040 -48 1040 -96
WIRE 16 0 0 0
WIRE 768 0 704 0
WIRE 944 0 848 0
WIRE 1120 0 1040 0
WIRE 656 32 608 32
WIRE 848 48 704 48
WIRE 1040 48 848 48
WIRE 992 64 992 32
WIRE 992 64 976 64
WIRE 800 80 800 32
WIRE 800 80 768 80
WIRE -336 96 -336 0
WIRE 16 96 16 0
WIRE 176 96 176 0
WIRE 336 96 336 0
WIRE -448 112 -448 32
WIRE -160 112 -160 0
WIRE 848 112 848 48
WIRE 848 112 800 112
WIRE 992 112 848 112
WIRE 880 160 800 160
WIRE 1088 160 992 160
WIRE 752 208 752 192
WIRE 752 208 704 208
WIRE 848 208 800 208
WIRE 992 208 848 208
WIRE -448 224 -448 192
WIRE 944 240 944 192
WIRE 944 240 928 240
WIRE 848 272 848 208
WIRE 1184 272 848 272
WIRE -336 288 -336 176
WIRE -160 288 -160 192
WIRE -160 288 -336 288
WIRE -48 288 -160 288
WIRE 16 288 16 176
WIRE 16 288 -48 288
WIRE 176 288 176 176
WIRE 176 288 16 288
WIRE 336 288 336 176
WIRE 336 288 176 288
WIRE 848 304 848 272
WIRE 848 304 624 304
WIRE 976 304 848 304
WIRE -48 320 -48 288
WIRE 624 336 624 304
WIRE 1040 352 976 352
WIRE 672 384 624 384
WIRE 928 384 880 384
WIRE 576 416 544 416
WIRE 976 448 976 400
WIRE 1040 496 976 496
WIRE 624 512 624 432
WIRE 928 528 880 528
WIRE 672 560 624 560
WIRE 976 592 976 544
WIRE 576 608 576 592
WIRE 576 608 544 608
WIRE 1040 640 976 640
WIRE 896 672 896 656
WIRE 928 672 896 672
WIRE 624 704 624 608
WIRE 816 704 624 704
WIRE 976 704 976 688
WIRE 976 704 816 704
WIRE 816 752 816 704
FLAG -448 224 0
FLAG -448 32 V
IOPIN -448 32 Out
FLAG 832 -176 V
IOPIN 832 -176 In
FLAG 1184 272 Y
IOPIN 1184 272 Out
FLAG 768 0 V
IOPIN 768 0 In
FLAG 1088 160 V
IOPIN 1088 160 In
FLAG 944 0 V
IOPIN 944 0 In
FLAG 1120 0 V
IOPIN 1120 0 In
FLAG 880 160 V
IOPIN 880 160 In
FLAG 672 384 0
FLAG 672 560 0
FLAG 1040 352 0
FLAG 1040 496 0
FLAG 1040 640 0
FLAG -336 0 A
IOPIN -336 0 Out
FLAG -160 0 B
IOPIN -160 0 Out
FLAG 0 0 C
IOPIN 0 0 Out
FLAG 176 0 D
IOPIN 176 0 Out
FLAG 336 0 E
IOPIN 336 0 Out
FLAG -48 320 0
FLAG 816 752 0
FLAG 608 32 A
IOPIN 608 32 In
FLAG 880 384 A
IOPIN 880 384 In
FLAG 768 80 B
IOPIN 768 80 In
FLAG 880 528 B
IOPIN 880 528 In
FLAG 976 64 C
IOPIN 976 64 In
FLAG 896 656 C
IOPIN 896 656 In
FLAG 704 208 D
IOPIN 704 208 In
FLAG 544 416 D
IOPIN 544 416 In
FLAG 928 240 E
IOPIN 928 240 In
FLAG 544 608 E
IOPIN 544 608 In
SYMBOL cmosp\ (3) 656 -48 R0
SYMATTR InstName M1
SYMATTR Value2 l=180n w=2400n
SYMBOL cmosp\ (3) 800 -48 R0
SYMATTR InstName M2
SYMATTR Value2 l=180n w=2400n
SYMBOL cmosp\ (3) 992 -48 R0
SYMATTR InstName M3
SYMATTR Value2 l=180n w=2400n
SYMBOL cmosp\ (3) 752 112 R0
SYMATTR InstName M4
SYMATTR Value2 l=180n w=2400n
SYMBOL cmosp\ (3) 944 112 R0
SYMATTR InstName M5
SYMATTR Value2 l=180n w=2400n
SYMBOL voltage -448 96 R0
WINDOW 123 0 0 Left 2
WINDOW 39 0 0 Left 2
SYMATTR InstName VDD
SYMATTR Value 1.358
SYMBOL cmosn\ (2) 576 336 R0
SYMATTR InstName M6
SYMATTR Value2 l=180n w=800n
SYMBOL cmosn\ (2) 928 592 R0
SYMATTR InstName M7
SYMATTR Value2 l=180n w=1200n
SYMBOL cmosn\ (2) 576 512 R0
SYMATTR InstName M8
SYMATTR Value2 l=180n w=800n
SYMBOL cmosn\ (2) 928 304 R0
SYMATTR InstName M9
SYMATTR Value2 l=180n w=1200n
SYMBOL cmosn\ (2) 928 448 R0
SYMATTR InstName M10
SYMATTR Value2 l=180n w=1200n
SYMBOL voltage -336 80 R0
WINDOW 3 -141 259 Left 2
WINDOW 123 0 0 Left 2
WINDOW 39 0 0 Left 2
SYMATTR Value PULSE(1.358 0 0 10p 10p 16n 32n)
SYMATTR InstName V1
SYMBOL voltage -160 96 R0
WINDOW 3 -140 -194 Left 2
WINDOW 123 0 0 Left 2
WINDOW 39 0 0 Left 2
SYMATTR Value PULSE(1.358 0 0 10p 10p 8n 16n)
SYMATTR InstName V2
SYMBOL voltage 16 80 R0
WINDOW 3 -121 291 Left 2
WINDOW 123 0 0 Left 2
WINDOW 39 0 0 Left 2
SYMATTR Value PULSE(1.358 0 0 10p 10p 4n 8n)
SYMATTR InstName V3
SYMBOL voltage 176 80 R0
WINDOW 3 -89 -188 Left 2
WINDOW 123 0 0 Left 2
WINDOW 39 0 0 Left 2
SYMATTR Value PULSE(1.358 0 0 10p 10p 2n 4n)
SYMATTR InstName V4
SYMBOL voltage 336 80 R0
WINDOW 3 -72 240 Left 2
WINDOW 123 0 0 Left 2
WINDOW 39 0 0 Left 2
SYMATTR Value PULSE(1.358 0 0 10p 10p 1n 2n)
SYMATTR InstName V5
TEXT 1064 -128 Left 2 !.INCLUDE tsmc018.lib
TEXT 1256 448 Left 2 !.tran 32n
TEXT 1152 -80 Left 2 ;19BEC0358
